8
s                      x[A]                      y[A]                      z[A]                      q[e]
O       -0.0038034999161691        1.5166564342483286        0.0000000000000000       -0.5255060958000000
O        0.1379622474663657        2.3257608807494496        0.0000000000000000       -0.0865222374000000
O       -0.0814788646667693        2.1093421834441273        0.0000000000000000       -0.1583961987000000
N        0.1363823114104476        0.0938249452763290        0.0000000000000000        0.9999998996000000
N        0.0031813543614143       -1.6320394574499317        0.0000000000000000        0.9999995707000000
O        0.0660139154090982       -1.1331231409158076       -0.1232574698000000       -0.6358076806000000
O        0.0660139154090982       -1.1331231409158076        0.1232574698000000       -0.6358076806000000
O       -0.1210976872766117       -1.1557279780796867       -0.0000000000000000       -0.9579595772000000

        RMSE         3.502298135E+00 kcal/mol
         MAE         2.726122775E+00 kcal/mol
     max. AE         1.893515592E+01 kcal/mol

Coordinates in bohr
s                   x[bohr]                   y[bohr]                   z[bohr]                      q[e]
-       -0.0071875731597615        2.8660652871427792        0.0000000000000000       -0.5255060958000000
-        0.2607108633640692        4.3950510979200432        0.0000000000000000       -0.0865222374000000
-       -0.1539727392334366        3.9860790315846262        0.0000000000000000       -0.1583961987000000
+        0.2577252169226482        0.1773034503083299        0.0000000000000000        0.9999998996000000
+        0.0060118884511039       -3.0841076005211554        0.0000000000000000        0.9999995707000000
-        0.1247482205923361       -2.1412924027494338       -0.2329228608388893       -0.6358076806000000
-        0.1247482205923361       -2.1412924027494338        0.2329228608388893       -0.6358076806000000
-       -0.2288414633791351       -2.1840093540997363       -0.0000000000000000       -0.9579595772000000
