8
s                      x[A]                      y[A]                      z[A]                      q[e]
O        0.2614867516266956        1.4901361385157488       -0.0000000000000000       -0.5255060958000000
O        0.6380709096294971        2.2201579905312454        0.0000000000000000       -0.0865222374000000
O        0.3640788551626744        2.0790204394450460        0.0000000000000000       -0.1583961987000000
N       -0.0293023568118917        0.0892888320067397        0.0000000000000000        0.9999998996000000
N       -0.2078425534279237       -1.6132799820247476        0.0000000000000000        0.9999995707000000
O       -0.0987734623840935       -1.1223936866256383       -0.1232574698000000       -0.6358076806000000
O       -0.0987734623840935       -1.1223936866256383        0.1232574698000000       -0.6358076806000000
O       -0.2871775289823529       -1.1274571056344780        0.0000000000000000       -0.9579595772000000

        RMSE         1.271160852E+00 kcal/mol
         MAE         7.606796631E-01 kcal/mol
     max. AE         6.985568430E+00 kcal/mol

Coordinates in bohr
s                   x[bohr]                   y[bohr]                   z[bohr]                      q[e]
-        0.4941383460100689        2.8159491914420554       -0.0000000000000000       -0.5255060958000000
-        1.2057792678215016        4.1954905573508476        0.0000000000000000       -0.0865222374000000
-        0.6880093243276824        3.9287792397801180        0.0000000000000000       -0.1583961987000000
+       -0.0553734292049189        0.1687314385547511        0.0000000000000000        0.9999998996000000
+       -0.3927655031946118       -3.0486573297103012        0.0000000000000000        0.9999995707000000
-       -0.1866547923691475       -2.1210166726653954       -0.2329228608388893       -0.6358076806000000
-       -0.1866547923691475       -2.1210166726653954        0.2329228608388893       -0.6358076806000000
-       -0.5426868791623750       -2.1305851478505393        0.0000000000000000       -0.9579595772000000
